7

Ni   -2.47923581        1.95129791       -0.43790767
Ni   -0.33271806       -1.79923912       -0.02626025
Ni   -0.84626806        2.36039210       -2.48370694
Ni   -1.09437930        1.03496852       -1.05862613
Ni   -0.72836133       -1.99403863        1.02673088
Ni    0.61282047       -2.30388704        0.98713225
Ni    1.05042818       -0.51601346        0.79230506