9

Fe   -1.08926453        0.22658233        1.45655999
Fe    2.47793638       -0.27097904        2.43984802
Co    0.81728711       -0.22260039       -1.81740942
Co    0.67912463       -2.36477959       -1.11926429
Co    1.47385849        1.82191642        0.84457184
Ni    2.06674627       -0.80831938       -1.74366141
Ni    2.17454403       -2.03294966       -2.07037778
Ni    0.37800173        1.69664644        0.73118613
Ni   -0.55270628       -1.04645822       -0.48012875
